data_image0
_chemical_formula_structural       Se3C3Cu3Se3C3
_chemical_formula_sum              "Se6 C6 Cu3"
_cell_length_a       10.5
_cell_length_b       10.5
_cell_length_c       20.0036329
_cell_angle_alpha    90.0
_cell_angle_beta     90.0
_cell_angle_gamma    59.99999989158382

_space_group_name_H-M_alt    "P 1"
_space_group_IT_number       1

loop_
  _space_group_symop_operation_xyz
  'x, y, z'

loop_
  _atom_site_type_symbol
  _atom_site_label
  _atom_site_symmetry_multiplicity
  _atom_site_fract_x
  _atom_site_fract_y
  _atom_site_fract_z
  _atom_site_occupancy
  Se  Se1       1.0  0.5970555209420827  0.21681778609683472  0.4999985865605359  1.0000
  Se  Se2       1.0  0.24701298122241724  0.3918078696317193  0.5000530914692857  1.0000
  Se  Se3       1.0  0.07204148273025096  0.21674702710459542  0.5000231982229871  1.0000
  C   C1        1.0  0.5105646170780447  0.1302857251936863  0.4999786975699683  1.0000
  C   C2        1.0  0.33355963934340854  0.21876088291308665  0.5000137841297256  1.0000
  C   C3        1.0  0.24508225905668782  0.1302411198887545  0.5000137791173243  1.0000
  Cu  Cu1       1.0  0.4220897099681735  0.5512970260329644  0.5000908056733103  1.0000
  Cu  Cu2       1.0  0.9279585172697491  0.5459816700012251  0.5000908056733103  1.0000
  Cu  Cu3       1.0  0.91696137037605  0.04671833868617069  0.5000908056733103  1.0000
  Se  Se4       1.0  0.7721020006837767  0.8667846928572428  0.4999091943266896  1.0000
  Se  Se5       1.0  0.5971059954608938  0.6917416193009692  0.49992429791358484  1.0000
  Se  Se6       1.0  0.24710028428116315  0.8667049695651237  0.49997379621253346  1.0000
  C   C4        1.0  0.5990735242645238  0.9532816613138293  0.4999386072909485  1.0000
  C   C5        1.0  0.5105715879675066  0.8647797247267545  0.4999386072909485  1.0000
  C   C6        1.0  0.333591171718676  0.9532370496237406  0.4999786879295034  1.0000
